130

C        5.152433   -3.449289   -1.429958
C        5.785948   -3.369834   -0.235703
H        5.245577   -4.180795   -2.227372
H        6.529449   -4.024340    0.208830
C        5.091917    3.558024   -0.678251
C        5.202864    3.548910    0.671059
H        5.368731    4.319458   -1.401637
H        5.598868    4.299310    1.349408
C        4.366378   -1.590564   -0.371665
C        4.257273    1.567806    0.055405
N        5.308112   -2.228959    0.386121
N        4.293565   -2.364759   -1.495033
N        4.523355    2.346097   -1.033922
N        4.694007    2.334991    1.099528
C        5.647390   -1.769164    1.726993
H        5.379755   -0.702755    1.706475
C        3.446864   -2.033439   -2.635012
H        2.824497   -1.205067   -2.264271
C        4.554431    1.925812    2.491567
H        4.063867    0.942971    2.422595
C        4.185232    1.941698   -2.392293
H        3.854716    0.899261   -2.272777
C        5.917111    1.765446    3.158363
H        5.801690    1.349603    4.170463
H        6.558051    1.088446    2.574825
H        6.437803    2.732208    3.250064
C        3.624897    2.867933    3.249026
H        2.659019    2.943571    2.729863
H        3.444412    2.488291    4.265559
H        4.055451    3.878394    3.337882
C        7.138771   -1.895652    2.010064
H        7.375346   -1.417053    2.971716
H        7.458176   -2.947573    2.082467
H        7.731737   -1.404792    1.224395
C        4.777105   -2.458128    2.772973
H        3.716985   -2.299174    2.529756
H        4.974832   -3.541829    2.801357
H        4.975164   -2.045327    3.774011
C        4.290943   -1.545188   -3.809522
H        4.968146   -0.741329   -3.491213
H        4.903810   -2.361403   -4.224679
H        3.646625   -1.162629   -4.615365
C        2.536237   -3.193680   -3.020056
H        1.955451   -3.534805   -2.153357
H        1.830356   -2.871991   -3.799622
H        3.110699   -4.044947   -3.419647
C        3.021907    2.763032   -2.938235
H        2.716664    2.384173   -3.925133
H        2.160663    2.699843   -2.259313
H        3.300340    3.823144   -3.053568
C        5.412966    1.976013   -3.296381
H        5.790527    3.002449   -3.429487
H        6.222873    1.362997   -2.874088
H        5.162274    1.584519   -4.293219
Ni        3.336081   -0.088828    0.163702
C        1.632824    0.543580    0.852266
C        1.644277   -0.886750    0.729391
H        1.700345    0.929317    1.883556
C        0.799117    1.455941   -0.027377
C        0.772019   -1.666210   -0.236831
H        1.751745   -1.428458    1.684524
H        0.919610    1.180844   -1.089736
H        1.199615    2.482425    0.064346
C       -0.713624    1.440046    0.309760
C       -0.738570   -1.676980    0.121210
H        0.865944   -1.274079   -1.263816
H        1.154760   -2.701526   -0.273460
C       -1.563303    0.653626   -0.671692
H       -0.825764    1.045778    1.332207
H       -1.105041    2.472970    0.356254
C       -1.584284   -0.780814   -0.766372
H       -1.125075   -2.706564    0.045142
H       -0.841592   -1.393029    1.183934
H       -1.628866    1.177211   -1.641993
H       -1.640858   -1.183953   -1.791394
Ni       -3.297446   -0.060809   -0.163166
C       -4.147111    1.528288    0.442272
C       -4.524768   -1.517028   -0.149247
N       -4.514894    1.809176    1.728278
N       -4.368110    2.704594   -0.213762
N       -5.558355   -1.639098   -1.038877
N       -4.616907   -2.660718    0.592226
C       -4.919964    3.125853    1.868916
C       -4.468104    0.783886    2.771630
C       -4.831876    3.689661    0.640237
C       -4.120733    2.876250   -1.640919
C       -6.249693   -2.825304   -0.867577
C       -5.799799   -0.630312   -2.067067
C       -5.660220   -3.466997    0.168965
C       -3.701045   -2.993461    1.677584
H       -5.239606    3.556527    2.811951
H       -4.905345   -0.109455    2.298028
C       -5.314422    1.160262    3.979185
C       -3.027189    0.453745    3.144801
H       -5.061262    4.699880    0.313553
H       -3.772330    1.885036   -1.964496
C       -5.408586    3.222036   -2.383237
C       -3.002365    3.882154   -1.889864
H       -7.097805   -3.116294   -1.478969
H       -5.532142    0.317748   -1.576465
C       -4.859961   -0.829950   -3.252269
C       -7.264844   -0.573780   -2.477514
H       -5.899589   -4.419520    0.632748
H       -2.961330   -2.181221    1.660336
C       -4.417088   -2.998763    3.026079
C       -2.985601   -4.313478    1.406390
H       -5.352068    0.308301    4.673197
H       -4.885608    2.011879    4.530876
H       -6.346544    1.410014    3.691714
H       -2.485161    0.142901    2.239381
H       -2.517125    1.330580    3.573247
H       -2.996445   -0.366498    3.877687
H       -6.190275    2.475701   -2.177908
H       -5.795084    4.210199   -2.086488
H       -5.227824    3.245817   -3.468104
H       -2.094887    3.581288   -1.348520
H       -2.766440    3.929884   -2.963215
H       -3.288599    4.894356   -1.561312
H       -4.978818   -0.012551   -3.980110
H       -3.819888   -0.836497   -2.895375
H       -5.065988   -1.784100   -3.763450
H       -7.572846   -1.471174   -3.037525
H       -7.921966   -0.463867   -1.602229
H       -7.426027    0.290818   -3.137752
H       -3.694384   -3.159038    3.839815
H       -4.932686   -2.044869    3.204463
H       -5.166506   -3.804897    3.077972
H       -2.535353   -4.309175    0.404515
H       -2.183488   -4.466468    2.142975
H       -3.675670   -5.169929    1.475508
