70

C      0.405375    3.201538    1.351074 
C     -0.542715    2.702346    2.181018 
H      0.875223    4.179972    1.325667 
H     -1.060154    3.161435    3.017885 
C     -3.752046    0.173599   -1.774442 
C     -3.919163   -1.033494   -1.179334 
H     -4.451741    0.790268   -2.330313 
H     -4.795490   -1.671874   -1.119298 
C      0.010481    1.074670    0.723807 
C     -1.775230   -0.416181   -0.853723 
N     -0.773255    1.400390    1.774897 
N      0.727269    2.192368    0.461685 
N     -2.431596    0.529055   -1.564635 
N     -2.703603   -1.374027   -0.620790 
C     -1.658677    0.440535    2.434989 
H     -1.509128   -0.487166    1.865426 
C      1.824209    2.243644   -0.511313 
H      1.788985    1.261964   -1.007648 
C     -2.421217   -2.650978    0.055078 
H     -1.399452   -2.540599    0.440974 
C     -1.798955    1.756208   -2.043545 
H     -0.733233    1.594403   -1.838042 
C     -3.396690   -2.882993    1.201798 
H     -3.104899   -3.787611    1.753735 
H     -3.394519   -2.038734    1.906400 
H     -4.428410   -3.031770    0.844861 
C     -2.385993   -3.784585   -0.960786 
H     -1.599366   -3.563226   -1.693167 
H     -2.133214   -4.727925   -0.455640 
H     -3.358350   -3.913971   -1.464064 
C     -3.114559    0.870928    2.304457 
H     -3.775674    0.128379    2.774313 
H     -3.295937    1.838481    2.798943 
H     -3.397814    0.961354    1.244635 
C     -1.200255    0.189284    3.865874 
H     -0.143941   -0.113684    3.864111 
H     -1.314881    1.086028    4.495294 
H     -1.796549   -0.617624    4.315587 
C      1.607522    3.343745   -1.544232 
H      0.654037    3.220729   -2.076122 
H      1.615157    4.341322   -1.077306 
H      2.417499    3.317586   -2.286563 
C      3.160962    2.371270    0.210482 
H      3.230038    1.614356    1.000993 
H      3.986839    2.205401   -0.495619 
H      3.280554    3.371333    0.657978 
C     -1.978470    1.918930   -3.548276 
H     -1.391360    2.778519   -3.903049 
H     -1.633758    1.020469   -4.079268 
H     -3.030352    2.103360   -3.816786 
C     -2.277965    2.964111   -1.245875 
H     -3.353625    3.142903   -1.402045 
H     -2.101483    2.814668   -0.171355 
H     -1.736308    3.868692   -1.559104 
C      2.976899   -1.168761    0.084263 
C      3.002142   -1.514604   -1.271963 
C      4.187006   -0.917660    0.741293 
C      4.213594   -1.578332   -1.958893 
H      2.050618   -1.753888   -1.753510 
C      5.397268   -0.982935    0.053426 
H      4.172712   -0.661604    1.801906 
C      5.414319   -1.307360   -1.302821 
H      4.219400   -1.847324   -3.018320 
H      6.333726   -0.781329    0.579775 
H      6.362530   -1.356498   -1.843998 
F      1.377629   -2.317819    1.371148 
F      1.895669   -0.291252    1.968797 
Ni     0.051685   -0.573333   -0.161206 
C      1.653557   -1.080026    0.822971 
F      0.169483   -2.133746   -1.134786 


