70

C        2.117283   -2.710299   -1.459598
C        0.918481   -2.896240   -2.063472
C       -2.402087   -1.550860    2.409092
C       -3.319231   -0.810228    1.739133
C        0.801192   -0.940084   -0.929088
C       -1.279590   -0.195000    0.990477
N        0.134633   -1.809372   -1.729045
N        2.021978   -1.517571   -0.767781
N       -1.161954   -1.156646    1.938124
N       -2.616273    0.009081    0.876363
C       -1.259680   -1.634372   -2.146660
C        3.120688   -0.881346   -0.045710
C       -3.205797    1.031585    0.001052
C        0.123498   -1.708184    2.361324
C       -4.283631    0.435337   -0.895178
C       -3.721307    2.200681    0.833591
C       -2.145045   -2.659429   -1.445998
C       -1.376609   -1.665119   -3.664684
C        3.766865   -1.827580    0.957978
C        4.122116   -0.284705   -1.028318
C        0.335937   -1.523034    3.858428
C        0.260342   -3.154529    1.897302
C        1.081230    2.413480   -0.135671
C        0.048541    2.369601    0.907296
C        2.485014    2.389519    0.230520
C        0.531121    2.293782    2.271431
C        2.849568    2.313465    1.536500
C        1.855497    2.225550    2.579699
F       -0.252167    3.458677   -1.759336
F        1.443364    2.326517   -2.456108
Ni        0.047115    0.661985   -0.049277
C        0.636798    2.549386   -1.452337
F       -0.885724    1.253286   -1.972096
H        3.016766   -3.318364   -1.472733
H        0.568116   -3.703645   -2.699401
H       -2.531467   -2.313256    3.171464
H       -4.402801   -0.801819    1.808824
H       -1.500597   -0.607858   -1.836411
H        2.644484   -0.058403    0.502812
H       -2.377801    1.359823   -0.650288
H        0.857494   -1.087976    1.828091
H       -4.643057    1.204658   -1.592919
H       -3.879378   -0.393850   -1.490446
H       -5.152017    0.068264   -0.323756
H       -2.930128    2.590905    1.489227
H       -4.052855    3.015391    0.173785
H       -4.575345    1.904426    1.464810
H       -3.198418   -2.513050   -1.726314
H       -1.869159   -3.690151   -1.723521
H       -2.067719   -2.563715   -0.352738
H       -0.729931   -0.890726   -4.099042
H       -1.110061   -2.645801   -4.092169
H       -2.412994   -1.442906   -3.957709
H        3.019486   -2.240263    1.649739
H        4.283503   -2.666727    0.465698
H        4.513766   -1.279798    1.550229
H        3.605580    0.380547   -1.734403
H        4.881941    0.300556   -0.489956
H        4.636625   -1.071325   -1.603428
H        1.347057   -1.854673    4.136293
H        0.236510   -0.462169    4.128743
H       -0.383600   -2.108792    4.452416
H       -0.511337   -3.796055    2.351896
H        0.167503   -3.219950    0.803148
H        1.241644   -3.560267    2.183597
H       -0.883912    2.920921    0.739830
H        3.234809    2.496218   -0.555589
H       -0.212161    2.294391    3.074894
H        3.908194    2.351586    1.805361
H        2.176934    2.155242    3.621279
