70

C     -1.486620    3.485615   -0.436702 
C     -0.206438    3.753990   -0.788019 
H     -2.306751    4.158587   -0.204209 
H      0.302658    4.705095   -0.913885 
C      2.340596   -0.099222    2.755719 
C      3.261121   -0.615346    1.906619 
H      2.441249    0.234593    3.784474 
H      4.317056   -0.821152    2.056169 
C     -0.441517    1.487656   -0.761413 
C      1.281875   -0.531381    0.783738 
N      0.411810    2.531010   -0.983941 
N     -1.610261    2.107305   -0.417648 
N      1.146376   -0.060478    2.058998 
N      2.602088   -0.872622    0.718776 
C      1.823421    2.338132   -1.297357 
H      1.898302    1.254896   -1.478418 
C     -2.845018    1.373132   -0.159644 
H     -2.519656    0.331305   -0.041051 
C      3.225701   -1.482932   -0.455302 
H      2.426133   -1.489196   -1.206636 
C     -0.105081    0.478136    2.583824 
H     -0.837278    0.265035    1.792448 
C      4.383467   -0.634669   -0.970181 
H      4.792203   -1.077230   -1.889955 
H      4.049523    0.386400   -1.200246 
H      5.203470   -0.572048   -0.237007 
C      3.630094   -2.923262   -0.163222 
H      2.760241   -3.495151    0.184761 
H      4.009457   -3.401640   -1.077562 
H      4.422372   -2.973031    0.601089 
C      2.692974    2.696697   -0.095382 
H      3.756067    2.522764   -0.318322 
H      2.575993    3.757969    0.176874 
H      2.420579    2.081108    0.774063 
C      2.218007    3.081988   -2.567527 
H      1.563087    2.794252   -3.402255 
H      2.157381    4.174349   -2.437185 
H      3.255403    2.838339   -2.840004 
C     -3.513512    1.818319    1.134934 
H     -2.808960    1.768560    1.976855 
H     -3.904318    2.846419    1.069091 
H     -4.358984    1.151931    1.357960 
C     -3.775008    1.449688   -1.364931 
H     -3.266996    1.059385   -2.258342 
H     -4.677587    0.847190   -1.188931 
H     -4.085230    2.488524   -1.562565 
C     -0.529529   -0.251970    3.852806 
H     -1.537494    0.069893    4.153202 
H     -0.550242   -1.338249    3.685495 
H      0.152538   -0.044303    4.692804 
C     -0.004809    1.989413    2.767076 
H      0.783695    2.252966    3.489961 
H      0.219435    2.480592    1.809654 
H     -0.953553    2.396772    3.146451 
C     -1.491902   -2.170434   -0.709336 
C     -1.422777   -2.369329    0.679911 
C     -2.751215   -1.979877   -1.302268 
C     -2.580226   -2.320869    1.456422 
H     -0.456346   -2.575151    1.139550 
C     -3.904022   -1.946532   -0.523424 
H     -2.808690   -1.855295   -2.383774 
C     -3.822304   -2.099906    0.861837 
H     -2.511178   -2.472310    2.536174 
H     -4.875105   -1.797631   -1.001453 
H     -4.727026   -2.068160    1.473512 
F      0.672789   -3.070114   -1.175197 
F     -0.589214   -2.519966   -2.843261 
Ni     0.020434   -0.359354   -0.695640 
C     -0.250221   -2.117843   -1.551853 
H      0.141808   -0.905418   -2.065985 



