70

C     -0.619010    3.741334   -0.205492 
C      0.718803    3.806361   -0.415334 
H     -1.334123    4.525852    0.022416 
H      1.395397    4.655466   -0.401077 
C      2.043829   -0.918695    2.682645 
C      2.873782   -1.535199    1.807278 
H      2.125559   -0.786999    3.757233 
H      3.816554   -2.047401    1.973920 
C      0.098284    1.640023   -0.635727 
C      1.114681   -0.744682    0.623219 
N      1.135417    2.511811   -0.677416 
N     -0.977944    2.412867   -0.336389 
N      0.974144   -0.447530    1.942007 
N      2.290339   -1.421225    0.560108 
C      2.509535    2.085394   -0.927007 
H      2.394297    1.045472   -1.264045 
C     -2.347846    1.889439   -0.297784 
H     -2.226705    0.799252   -0.236476 
C      2.831971   -2.018491   -0.666132 
H      2.064462   -1.813978   -1.427227 
C     -0.152074    0.306925    2.492815 
H     -0.879215    0.344297    1.670975 
C      4.141176   -1.347364   -1.069904 
H      4.511662   -1.784802   -2.007995 
H      4.008262   -0.269143   -1.228243
H      4.920018   -1.489107   -0.303328 
C      2.980194   -3.528203   -0.515508 
H      2.020318   -3.971403   -0.226478 
H      3.285865   -3.966106   -1.476490 
H      3.748145   -3.789137    0.230506 
C      3.326284    2.094757    0.361419 
H      4.345946    1.728790    0.171040 
H      3.403671    3.111797    0.777879 
H      2.866459    1.442256    1.117491 
C      3.148842    2.892013   -2.050180 
H      2.519841    2.868533   -2.951340 
H      3.309296    3.942919   -1.761745 
H      4.130197    2.464703   -2.302092 
C     -3.098318    2.364982    0.938264 
H     -2.540974    2.130694    1.856802 
H     -3.291793    3.449569    0.916411 
H     -4.067772    1.850012    0.990271 
C     -3.068993    2.203535   -1.601682 
H     -2.504447    1.777901   -2.443450 
H     -4.070013    1.749822   -1.592642 
H     -3.177542    3.290066   -1.750811 
C     -0.792896   -0.426059    3.666002 
H     -1.726098    0.080307    3.951675 
H     -1.034202   -1.463860    3.398462 
H     -0.136179   -0.438095    4.550290 
C      0.272755    1.726887    2.855036 
H      1.040315    1.719953    3.645225 
H      0.680326    2.251445    1.980492 
H     -0.588263    2.300601    3.227990 
C     -2.048663   -1.859269   -0.670187 
C     -2.271101   -1.978345    0.708192 
C     -3.114324   -1.460652   -1.487672 
C     -3.508660   -1.659157    1.263251 
H     -1.448235   -2.320074    1.338674 
C     -4.355863   -1.156920   -0.935369 
H     -2.943927   -1.368876   -2.561371 
C     -4.557572   -1.239433    0.444265 
H     -3.660075   -1.751383    2.342033 
H     -5.176362   -0.848704   -1.588664 
H     -5.530628   -0.994236    0.876296 
F     -0.055899   -3.076984   -0.520333 
F     -0.725613   -2.503350   -2.513514 
Ni     0.024649   -0.244235   -0.894138 
C     -0.659426   -2.022082   -1.227100 
H     -0.652632    0.101110   -2.174128
