48

C       -3.185177    1.087745   -2.128534
C       -4.933781   -0.766856    0.397681
C       -1.033287   -1.567312   -2.572689
C        0.721764   -2.630833    1.903260
C       -2.800053   -0.153192   -0.011679
C       -0.431229   -1.801908   -0.171968
N       -3.628036   -0.798718    0.845151
N       -3.608252    0.276234   -1.008413
N       -0.366823   -2.214200   -1.465506
N        0.373892   -2.664078    0.487634
C       -3.169720   -1.394442    2.086404
C       -4.923034   -0.087728   -0.774672
C        0.973006   -3.561953   -0.367557
C        0.497979   -3.289031   -1.606788
C        0.131650    2.562544    0.244564
C        1.146091    2.903252    1.145253
C        0.368874    2.724779   -1.124695
C        2.371003    3.380399    0.684813
C        1.597592    3.194213   -1.589641
C        2.607910    3.521319   -0.684816
F       -1.337787    2.188397    2.050694
F       -2.199765    2.581719    0.083589
Ni       -0.986502    0.015867    0.400237
C       -1.150668    1.921966    0.716894
F        0.646742    0.158877    1.268205
H       -3.502430    0.625973   -3.074936
H       -5.751959   -1.223156    0.946981
H       -0.883492   -2.165332   -3.480281
H        1.825242   -2.726725    1.917129
H       -2.721271   -0.624110    2.728368
H       -2.094437    1.160621   -2.101442
H        0.424443   -1.658756    2.305726
H        0.709761   -3.745032   -2.569364
H        0.226514   -3.460597    2.429243
H        1.772203   -4.208797   -0.019558
H       -2.416421   -2.166174    1.877037
H       -4.023153   -1.848171    2.604864
H       -3.599810    2.100633   -2.046623
H       -5.728878    0.170032   -1.455278
H       -2.109878   -1.487905   -2.378184
H       -0.625316   -0.560262   -2.743823
H        0.967429    2.767810    2.211145
H       -0.421812    2.484386   -1.838889
H        3.152343    3.642897    1.402529
H        1.762051    3.317443   -2.663011
H        3.569825    3.895327   -1.043385
Cs        2.927806   -0.247998   -0.184872
F        3.327785   -2.656430    0.715964
