48

Ni       -0.772009    0.499656    0.298571
F        0.696744    1.713145    0.223954
F       -2.340712   -0.788603    2.015201
F       -3.464186   -0.232714    0.221524
N       -2.674379    2.154640   -1.312089
N        1.124123   -0.881637    2.027924
N       -2.041048    3.096547    0.499528
N        1.279626   -1.584619    0.014097
C        0.530886   -0.806963    0.817963
C       -3.290625    3.391253   -1.277182
C       -2.571868   -2.419992   -1.192741
C       -2.092601   -2.106610    0.082583
C        2.256782   -1.681851    1.972151
C       -1.909771    1.958738   -0.216876
C       -1.437691   -3.102432    0.814925
C        0.690312   -0.104442    3.168743
C       -2.223615   -0.704098    0.627755
C       -2.372703   -3.687509   -1.737903
C        1.046200   -1.815216   -1.403244
C       -1.237102   -4.368578    0.272715
C       -2.888982    3.987364   -0.126862
C       -1.344781    3.320373    1.753575
C        2.352932   -2.125567    0.692079
C       -2.857955    1.177842   -2.362806
C       -1.696799   -4.665693   -1.011055
H       -3.947966    3.740185   -2.068006
H       -3.116678   -1.665418   -1.761140
H       -0.404379   -0.040264    3.152501
H       -1.075056   -2.873701    1.817903
H        1.009218   -0.597866    4.096141
H       -2.752214   -3.912915   -2.737291
H        0.385532   -1.020126   -1.772628
H       -0.716800   -5.130432    0.857678
H       -3.126811    4.961911    0.289254
H       -1.879817    2.836675    2.583652
H        3.135891   -2.645740    0.146915
H        2.886581   -1.862138    2.838439
H       -2.132544    0.371389   -2.207833
H        2.047600   -1.760805   -1.875486
H        1.113406    0.910221    3.127200
H       -1.534863   -5.657465   -1.438750
H       -3.871446    0.755120   -2.324287
H        0.551965   -2.786363   -1.551172
H       -1.276672    4.399031    1.944331
H       -2.682818    1.638632   -3.344827
H       -0.339428    2.892725    1.643082
Cs        3.298187    1.117413   -0.585012
F        3.820299   -1.244599   -1.510586
