69

 Ni                 1.15650000    1.00359500   -0.08481300
 F                 -0.56810000   -0.26103000    1.02604500
 F                  3.38940400    0.92481600   -1.66981400
 N                  2.50099700   -0.90672700    1.81790100
 N                 -1.06967800    1.75020500   -1.92131900
 N                  3.51095700    0.96667200    1.60679300
 N                  0.17895500    3.40325900   -1.39810600
 C                  0.01162800    2.07753500   -1.18698300
 C                  3.56984100   -0.93299200    2.69257400
 C                  3.41167300   -1.76119500   -1.09357500
 C                  2.27950900   -1.14781300   -1.64001000
 C                 -1.57592200    2.84540500   -2.58729300
 C                  2.45015400    0.26457800    1.14237200
 C                  1.25498200   -1.95604000   -2.14538600
 C                 -1.62916700    0.42080700   -1.98208900
 C                  2.12220800    0.35149400   -1.63105000
 C                  3.49810800   -3.14925800   -1.01655700
 C                  1.27072800    4.16946700   -0.83590900
 C                  1.34221100   -3.34543500   -2.07101200
 C                  4.20914500    0.25443100    2.56084300
 C                  3.82915000    2.31228600    1.17360900
 C                 -0.78276800    3.89477800   -2.26103500
 C                  1.57784600   -2.01197700    1.65819600
 C                  2.45891600   -3.94930600   -1.49325600
 Si                -0.86017800    1.34049900    1.90206700
 C                 -0.63026800    0.46197500    3.55770600
 C                 -0.73709500    3.19529600    2.44255000
 C                 -2.59467100    1.33359400    1.12536300
 C                 -3.36208500    0.15974800    1.16777000
 C                 -3.12483900    2.41404800    0.40629500
 C                 -4.55979000    0.01379800    0.47172000
 C                 -4.33763800    2.30062200   -0.27859400
 C                 -5.04687200    1.09737200   -0.26280300
 F                  1.56448800    0.70219100   -2.84917800
 H                  3.78539300   -1.79130100    3.32166000
 H                  4.22471300   -1.13633200   -0.72051200
 H                 -1.08031700   -0.17339100   -1.24649300
 H                  0.38666700   -1.48558000   -2.60873000
 H                 -2.69209000    0.43851100   -1.70156000
 H                  4.38865700   -3.61194700   -0.58462600
 H                  2.22657600    3.83393400   -1.26182200
 H                  0.53753200   -3.96288600   -2.48015700
 H                  5.09490200    0.64510800    3.05274800
 H                  3.74751700    2.36040700    0.08176000
 H                 -0.82310800    4.93800800   -2.55917600
 H                 -2.46228600    2.78744400   -3.21114800
 H                  0.74679600   -1.92470600    2.37024800
 H                  1.12446500    5.23174600   -1.06747800
 H                 -1.50484900   -0.00235800   -2.98952500
 H                  2.52851900   -5.03761800   -1.43480100
 H                  1.18048100   -1.98462800    0.64069000
 H                  1.28999000    4.04217000    0.25497800
 H                  4.85688300    2.55530600    1.47128000
 H                  2.11821600   -2.95526500    1.80768800
 H                  3.13948600    3.03469800    1.63403000
 H                  0.57939700    1.70988600    1.21642500
 H                 -0.99466000    1.06607300    4.40172400
 H                 -1.14571300   -0.51027700    3.57006200
 H                  0.44443200    0.27231200    3.72136100
 H                  0.19439600    3.36328600    3.01174000
 H                 -0.72080100    3.88282600    1.57909000
 H                 -1.58721100    3.48778500    3.08256500
 H                 -3.02134000   -0.69982100    1.74837400
 H                 -2.57325500    3.35684400    0.34697700
 H                 -5.01270100   -0.98572300    0.48167500
 H                 -4.72327100    3.15553600   -0.84120900
 H                 -5.98085000    1.00514600   -0.82344900
 Cs                -1.74245500   -2.73393700   -0.00575200
 F                 -4.16974600   -2.89702900    0.55741400

