82

C        5.500233   -3.628499   -0.852525
C        6.180419   -3.357148    0.287238
C        5.669383    3.345902   -1.178397
C        5.453320    3.796583    0.081019
C        4.653920   -1.690870   -0.003163
C        4.550580    1.709550   -0.054998
N        5.658573   -2.175034    0.782122
N        4.581086   -2.606466   -1.012784
N        5.123186    2.076455   -1.237637
N        4.772309    2.792295    0.744508
C        3.635071   -2.520982   -2.102232
C        4.342248    2.868460    2.122127
C        5.095553    1.247482   -2.421230
Pd        3.442158   -0.021998    0.345786
C        1.523563    0.664343    0.890968
C        1.536853   -0.764278    0.875129
C        0.768864    1.528004   -0.105119
C        0.766148   -1.607953   -0.124806
C       -0.769120    1.528121    0.104321
C       -0.766738   -1.607906    0.124412
C       -1.523969    0.664405   -0.891625
C       -1.537425   -0.764241   -0.875559
Pd       -3.442459   -0.021789   -0.346016
C       -4.551205    1.709534    0.054997
C       -4.653440   -1.691113    0.003514
N       -5.124161    2.075978    1.237608
N       -4.772783    2.792542   -0.744182
N       -5.657376   -2.176533   -0.781909
N       -4.579867   -2.606402    1.013363
C       -5.670402    3.345421    1.178676
C       -5.096846    1.246552    2.420892
C       -5.454039    3.796553   -0.080527
C       -6.178059   -3.359110   -0.286894
C       -5.497836   -3.629486    0.853078
C       -6.076727   -1.540731   -2.009697
C       -3.634069   -2.519780    2.102911
C       -4.342692    2.868997   -2.121779
C        6.077432   -1.538518    2.009710
H        5.594008   -4.450719   -1.556477
H        6.984318   -3.897407    0.779504
H        6.158936    3.816705   -2.026351
H        5.724177    4.736063    0.554605
H        5.759777   -0.488232    1.966813
H        3.055291   -1.599590   -1.966270
H        3.625006    2.054717    2.288257
H        5.107797    0.196756   -2.104612
H        1.538268    1.118444    1.894547
H        1.583798   -1.243900    1.864051
H        0.983023    1.206544   -1.138186
H        1.161767    2.556668   -0.026641
H        0.942896   -1.255772   -1.154648
H        1.159770   -2.638552   -0.083881
H       -0.983311    1.206861    1.137444
H       -1.161890    2.556826    0.025683
H       -1.160401   -2.638490    0.083475
H       -0.943499   -1.255720    1.154241
H       -1.538460    1.118330   -1.895291
H       -1.584412   -1.243974   -1.864430
H       -6.160178    3.815917    2.026671
H       -5.110610    0.195926    2.103998
H       -5.724819    4.736185   -0.553855
H       -3.623484    2.056884   -2.287390
H       -6.981286   -3.900319   -0.779211
H       -5.758434   -0.490603   -1.967769
H       -5.590886   -4.451661    1.557180
H       -3.056104   -1.597140    1.967627
H       -7.170346   -1.594305   -2.109848
H       -5.607925   -2.017511   -2.883860
H       -2.940354   -3.373017    2.088072
H       -4.156317   -2.493222    3.071512
H       -3.853403    3.834519   -2.314383
H       -5.193704    2.752209   -2.810540
H       -5.976453    1.458423    3.044572
H       -4.183379    1.424224    3.008197
H        3.850600    3.832868    2.314349
H        5.193663    2.754104    2.810796
H        4.182669    1.426493   -3.009037
H        5.975812    1.458412   -3.044319
H        7.170947   -1.592670    2.110608
H        5.607777   -2.014361    2.883925
H        2.943120   -3.375660   -2.087955
H        4.157186   -2.492680   -3.070861
