46

C    -1.526350000     3.138231000    -1.576499000
C    -0.359073000     3.013353000    -2.255932000
C     2.926690000     1.286494000     2.215878000
C     3.594463000     0.306620000     1.556669000
C    -0.593807000     1.164166000    -0.985934000
C     1.407015000     0.075013000     1.071094000
N     0.190121000     1.801587000    -1.883118000
N    -1.647843000     2.000715000    -0.800224000
N     1.587296000     1.124579000     1.906849000
N     2.650848000    -0.418666000     0.856502000
C    -1.655480000    -2.266582000    -0.013457000
C    -0.654269000    -2.438525000     1.045386000
C    -3.012145000    -1.880570000     0.328703000
C    -1.127074000    -2.272518000     2.404990000
C    -3.367606000    -1.727323000     1.631100000
C    -2.406902000    -1.905844000     2.690899000
F    -0.499843000    -3.554951000    -1.586846000
F    -1.986685000    -2.192434000    -2.343219000
Pd    -0.219300000    -0.617191000     0.079224000
C    -1.247849000    -2.526077000    -1.325165000
F     0.613621000    -1.523267000    -2.046788000
C    -2.815406802     1.830447795     0.076533577
C     1.471376466     1.367304794    -2.458168777
C     0.586096452     2.038432844     2.475505853
C     2.839039347    -1.578216782    -0.027198177
H    -2.269833000     3.929593000    -1.591233000
H     0.113453000     3.680399000    -2.970572000
H     3.292775000     2.072586000     2.869478000
H     4.654822001     0.075346000     1.530045000
H     0.156725000    -3.153940000     0.877654000
H    -3.746762000    -1.779288000    -0.471875000
H    -0.415231000    -2.449682000     3.216090000
H    -4.405279001    -1.494160000     1.882040000
H    -2.724643000    -1.776884000     3.727706000
H    -3.252853987     2.826485126     0.308939175
H    -2.500555426     1.333994070     1.020919662
H    -3.576357651     1.202014732    -0.436778941
H     2.287982270     1.551819239    -1.725657925
H     1.672555879     1.940252447    -3.390220598
H     1.423171995     0.281201080    -2.693793696
H     1.088256017     2.967637986     2.824613776
H     0.079553876     1.545303278     3.334400851
H    -0.167172238     2.293909962     1.697828687
H     3.844720367    -1.524869500    -0.499662483
H     2.056773564    -1.572382163    -0.818076782
H     2.758036427    -2.514881820     0.567411935



